23
TV: (1.7850000000 1.7850000000 0.0000000000) (-1.7850000000 1.7850000000 0.0000000000)
 C         0.8925000000       0.8925000000      -9.8175000000
 C        -0.8925000000       0.8925000000      -8.0325000000
 C         0.0000000000       1.7850000000      -8.9250000000
 C         0.0000000000       0.0000000000      -7.1400000000
 C         0.8925000000       0.8925000000      -6.2475000000
 C        -0.8925000000       0.8925000000      -4.4625000000
 C         0.0000000000       1.7850000000      -5.3550000000
 C         0.0000000000       0.0000000000      -3.5700000000
 C         0.8925000000       0.8925000000      -2.6775000000
 C        -0.8925000000       0.8925000000      -0.8925000000
 C         0.0000000000       1.7850000000      -1.7850000000
 C         0.0000000000       0.0000000000       0.0000000000
 C         0.8925000000       0.8925000000       0.8925000000
 C        -0.8925000000       0.8925000000       2.6775000000
 C         0.0000000000       1.7850000000       1.7850000000
 C         0.0000000000       0.0000000000       3.5700000000
 C         0.8925000000       0.8925000000       4.4625000000
 C        -0.8925000000       0.8925000000       6.2475000000
 C         0.0000000000       1.7850000000       5.3550000000
 C         0.0000000000       0.0000000000       7.1400000000
 C         0.8925000000       0.8925000000       8.0325000000
 C        -0.8925000000       0.8925000000       9.8175000000
 C         0.0000000000       1.7850000000       8.9250000000
