92
TV: (5.2449979674 -11.2690329002 -0.0000000000) (12.0305364314 -3.1252678855 -0.0000000000)
 O         3.3591316887      -2.7988918194       3.5334031575
 O         3.5822508948      -6.4341998271       4.4167539469
 O         6.9750201268      -2.3623173197       4.4167539469
 Re        0.0000000000       0.0000000000       0.0000000000
 O         0.4798759555      -0.3998416885      -1.7667015787
 O         2.0310634251      -3.4170207578       1.3250261841
 O         3.7274480411      -1.3810795041       1.3250261841
 Re        3.8390076442      -3.1987335079       1.7667015787
 O         4.3188835997      -3.5985751964      -0.0000000000
 O         5.6469518632      -2.9804462581       2.2083769734
 O         3.9505672472      -5.0163875117       2.2083769734
 Re        4.0621268503      -6.8340415156       2.6500523681
 O         4.5420028058      -7.2338832040       0.8833507894
 O         5.8700710693      -6.6157542657       3.0917277628
 O         4.1736864533      -8.6516955194       3.0917277628
 O         6.0931902754     -10.2510622733       3.9750785522
 Re        7.4548960823      -2.7621590082       2.6500523681
 O         7.9347720378      -3.1620006967       0.8833507894
 O         9.2628403013      -2.5438717583       3.0917277628
 O         7.5664556853      -4.5798130120       3.0917277628
 Re        7.6780152884      -6.3974670158       3.5334031575
 O         8.1578912439      -6.7973087043       1.7667015787
 O         9.4859595074      -6.1791797660       3.9750785522
 O         7.7895748914      -8.2151210197       3.9750785522
 Re        7.9011344945     -10.0327750235       4.4167539469
 O         8.3810104500     -10.4326167120       2.6500523681
 O         9.7090787135      -9.8144877736       4.8584293416
 O         8.0126940975     -11.8504290273       4.8584293416
 O        11.1823441234      -4.1432385123       3.9750785522
 Re       11.2939037265      -5.9608925161       4.4167539469
 O        11.7737796820      -6.3607342046       2.6500523681
 O        13.1018479455      -5.7426052663       4.8584293416
 O        11.4054633295      -7.7785465199       4.8584293416
 O        11.9968988881      -9.9960422122       3.5334031575
 Re        0.9597519110      -0.7996833770      -3.5334031575
 O         2.9908153362      -4.2167041348      -2.2083769734
 O         4.6871999522      -2.1807628811      -2.2083769734
 Re        4.7987595552      -3.9984168849      -1.7667015787
 O         5.2786355108      -4.3982585734      -3.5334031575
 O         6.6067037743      -3.7801296350      -1.3250261841
 O         4.9103191583      -5.8160708887      -1.3250261841
 Re        5.0218787613      -7.6337248925      -0.8833507894
 O         5.5017547169      -8.0335665810      -2.6500523681
 O         6.8298229804      -7.4154376427      -0.4416753947
 O         5.1334383644      -9.4513788964      -0.4416753947
 O         7.0529421865     -11.0507456503       0.4416753947
 Re        8.4146479933      -3.5618423852      -0.8833507894
 O         8.8945239489      -3.9616840737      -2.6500523681
 O        10.2225922124      -3.3435551353      -0.4416753947
 O         8.5262075964      -5.3794963890      -0.4416753947
 Re        8.6377671994      -7.1971503928      -0.0000000000
 O         9.1176431550      -7.5969920813      -1.7667015787
 O        10.4457114185      -6.9788631430       0.4416753947
 O         8.7493268025      -9.0148043966       0.4416753947
 Re        8.8608864055     -10.8324584005       0.8833507894
 O         9.3407623611     -11.2323000889      -0.8833507894
 O        10.6688306246     -10.6141711506       1.3250261841
 O        12.1420960345      -4.9429218893       0.4416753947
 Re       12.2536556375      -6.7605758931       0.8833507894
 O        12.7335315930      -7.1604175816      -0.8833507894
 O        12.3652152406      -8.5782298969       1.3250261841
 Re       12.4767748436     -10.3958839007       1.7667015787
 O        12.9566507992     -10.7957255892      -0.0000000000
 O        14.2847190627     -10.1775966509       2.2083769734
 O        12.5883344467     -12.2135379045       2.2083769734
 Re       16.3157824878     -13.5946174086       3.5334031575
 O        16.7956584433     -13.9944590971       1.7667015787
 O         4.1736864533      -8.6516955194      -4.8584293416
 O         7.5664556853      -4.5798130120      -4.8584293416
 O         5.8700710693      -6.6157542657      -4.8584293416
 Re        5.9816306724      -8.4334082695      -4.4167539469
 O         7.7895748914      -8.2151210197      -3.9750785522
 O         6.0931902754     -10.2510622733      -3.9750785522
 O         8.0126940975     -11.8504290273      -3.0917277628
 O         9.2628403013      -2.5438717583      -4.8584293416
 Re        9.3743999044      -4.3615257622      -4.4167539469
 O        11.1823441234      -4.1432385123      -3.9750785522
 O         9.4859595074      -6.1791797660      -3.9750785522
 Re        9.5975191105      -7.9968337698      -3.5334031575
 O        11.4054633295      -7.7785465199      -3.0917277628
 O         9.7090787135      -9.8144877736      -3.0917277628
 Re        9.8206383166     -11.6321417774      -2.6500523681
 O        10.3005142721     -12.0319834659      -4.4167539469
 O        11.6285825356     -11.4138545276      -2.2083769734
 O        13.1018479455      -5.7426052663      -3.0917277628
 Re       13.2134075486      -7.5602592701      -2.6500523681
 O        13.6932835041      -7.9601009586      -4.4167539469
 O        13.3249671516      -9.3779132739      -2.2083769734
 Re       13.4365267547     -11.1955672777      -1.7667015787
 O        13.9164027102     -11.5954089662      -3.5334031575
 O        15.2444709737     -10.9772800279      -1.3250261841
 O        13.5480863577     -13.0132212815      -1.3250261841
