92
Periodicity axes: (12.326027676760772, 1.6031680808098068, -1.1449174941446927e-15) (6.6071692255869241, 10.528362693603267, -7.2880070034475608e-16) 
 O     3.6814549532E+00   2.3589087617E+00   3.5334031575E+00
 O     7.2148581107E+00   1.4755579723E+00   4.4167539469E+00
 O     4.3554288851E+00   5.9381552787E+00   4.4167539469E+00
 Re    0.0000000000E+00   0.0000000000E+00   0.0000000000E+00
 O     5.2592213618E-01   3.3698696596E-01  -1.7667015787E+00
 O     3.8703901235E+00   9.0627246914E-01   1.3250261841E+00
 O     2.4406755107E+00   3.1375711223E+00   1.3250261841E+00
 Re    4.2073770894E+00   2.6958957276E+00   1.7667015787E+00
 O     4.7332992256E+00   3.0328826936E+00  -3.6656875452E-16
 O     4.5443640554E+00   4.4855189862E+00   2.2083769734E+00
 O     5.9740786682E+00   2.2542203330E+00   2.2083769734E+00
 Re    7.7407802469E+00   1.8125449383E+00   2.6500523681E+00
 O     8.2667023831E+00   2.1495319042E+00   8.8335078937E-01
 O     8.0777672129E+00   3.6021681968E+00   3.0917277628E+00
 O     9.5074818257E+00   1.3708695436E+00   3.0917277628E+00
 O     1.1611170370E+01   2.7188174074E+00   3.9750785522E+00
 Re    4.8813510213E+00   6.2751422447E+00   2.6500523681E+00
 O     5.4072731575E+00   6.6121292106E+00   8.8335078937E-01
 O     5.2183379873E+00   8.0647655032E+00   3.0917277628E+00
 O     6.6480526001E+00   5.8334668500E+00   3.0917277628E+00
 Re    8.4147541788E+00   5.3917914553E+00   3.5334031575E+00
 O     8.9406763150E+00   5.7287784213E+00   1.7667015787E+00
 O     8.7517411448E+00   7.1814147138E+00   3.9750785522E+00
 O     1.0181455758E+01   4.9501160606E+00   3.9750785522E+00
 Re    1.1948157336E+01   4.5084406659E+00   4.4167539469E+00
 O     1.2474079472E+01   4.8454276319E+00   2.6500523681E+00
 O     1.2285144302E+01   6.2980639244E+00   4.8584293416E+00
 O     1.3714858915E+01   4.0667652712E+00   4.8584293416E+00
 O     7.3220265320E+00   9.4127133670E+00   3.9750785522E+00
 Re    9.0887281107E+00   8.9710379723E+00   4.4167539469E+00
 O     9.6146502469E+00   9.3080249383E+00   2.6500523681E+00
 O     9.4257150767E+00   1.0760661231E+01   4.8584293416E+00
 O     1.0855429689E+01   8.5293625776E+00   4.8584293416E+00
 O     1.3148053404E+01   8.4246741489E+00   3.5334031575E+00
 Re    1.0518442724E+00   6.7397393191E-01  -3.5334031575E+00
 O     4.9222343958E+00   1.5802464010E+00  -2.2083769734E+00
 O     3.4925197830E+00   3.8115450542E+00  -2.2083769734E+00
 Re    5.2592213618E+00   3.3698696596E+00  -1.7667015787E+00
 O     5.7851434979E+00   3.7068566255E+00  -3.5334031575E+00
 O     5.5962083277E+00   5.1594929181E+00  -1.3250261841E+00
 O     7.0259229405E+00   2.9281942649E+00  -1.3250261841E+00
 Re    8.7926245193E+00   2.4865188702E+00  -8.8335078937E-01
 O     9.3185466554E+00   2.8235058361E+00  -2.6500523681E+00
 O     9.1296114852E+00   4.2761421287E+00  -4.4167539469E-01
 O     1.0559326098E+01   2.0448434755E+00  -4.4167539469E-01
 O     1.2663014643E+01   3.3927913393E+00   4.4167539469E-01
 Re    5.9331952937E+00   6.9491161766E+00  -8.8335078937E-01
 O     6.4591174299E+00   7.2861031425E+00  -2.6500523681E+00
 O     6.2701822596E+00   8.7387394351E+00  -4.4167539469E-01
 O     7.6998968724E+00   6.5074407819E+00  -4.4167539469E-01
 Re    9.4665984512E+00   6.0657653872E+00  -7.3313750903E-16
 O     9.9925205874E+00   6.4027523532E+00  -1.7667015787E+00
 O     9.8035854171E+00   7.8553886457E+00   4.4167539469E-01
 O     1.1233300030E+01   5.6240899925E+00   4.4167539469E-01
 Re    1.3000001609E+01   5.1824145978E+00   8.8335078937E-01
 O     1.3525923745E+01   5.5194015638E+00  -8.8335078937E-01
 O     1.3336988575E+01   6.9720378563E+00   1.3250261841E+00
 O     8.3738708043E+00   1.0086687299E+01   4.4167539469E-01
 Re    1.0140572383E+01   9.6450119042E+00   8.8335078937E-01
 O     1.0666494519E+01   9.9819988702E+00  -8.8335078937E-01
 O     1.1907273962E+01   9.2033365095E+00   1.3250261841E+00
 Re    1.3673975541E+01   8.7616611149E+00   1.7667015787E+00
 O     1.4199897677E+01   9.0986480808E+00  -1.0870210981E-15
 O     1.4010962507E+01   1.0551284373E+01   2.2083769734E+00
 O     1.5440677119E+01   8.3199857202E+00   2.2083769734E+00
 Re    1.7881352630E+01   1.1457556843E+01   3.5334031575E+00
 O     1.8407274766E+01   1.1794543808E+01   1.7667015787E+00
 O     9.5074818257E+00   1.3708695436E+00  -4.8584293416E+00
 O     6.6480526001E+00   5.8334668500E+00  -4.8584293416E+00
 O     8.0777672129E+00   3.6021681968E+00  -4.8584293416E+00
 Re    9.8444687916E+00   3.1604928021E+00  -4.4167539469E+00
 O     1.0181455758E+01   4.9501160606E+00  -3.9750785522E+00
 O     1.1611170370E+01   2.7188174074E+00  -3.9750785522E+00
 O     1.3714858915E+01   4.0667652712E+00  -3.0917277628E+00
 O     5.2183379873E+00   8.0647655032E+00  -4.8584293416E+00
 Re    6.9850395660E+00   7.6230901085E+00  -4.4167539469E+00
 O     7.3220265320E+00   9.4127133670E+00  -3.9750785522E+00
 O     8.7517411448E+00   7.1814147138E+00  -3.9750785522E+00
 Re    1.0518442724E+01   6.7397393191E+00  -3.5334031575E+00
 O     1.0855429689E+01   8.5293625776E+00  -3.0917277628E+00
 O     1.2285144302E+01   6.2980639244E+00  -3.0917277628E+00
 Re    1.4051845881E+01   5.8563885297E+00  -2.6500523681E+00
 O     1.4577768017E+01   6.1933754957E+00  -4.4167539469E+00
 O     1.4388832847E+01   7.6460117883E+00  -2.2083769734E+00
 O     9.4257150767E+00   1.0760661231E+01  -3.0917277628E+00
 Re    1.1192416655E+01   1.0318985836E+01  -2.6500523681E+00
 O     1.1718338792E+01   1.0655972802E+01  -4.4167539469E+00
 O     1.2959118234E+01   9.8773104415E+00  -2.2083769734E+00
 Re    1.4725819813E+01   9.4356350468E+00  -1.7667015787E+00
 O     1.5251741949E+01   9.7726220127E+00  -3.5334031575E+00
 O     1.5062806779E+01   1.1225258305E+01  -1.3250261841E+00
 O     1.6492521392E+01   8.9939596521E+00  -1.3250261841E+00
